data/nesta/nesta_case29_edin.m
%%%%%%%%%%%%%%%%%%%%%%%%%%%%%%%%%%%%%%%%%%%%%%%%%%%%%%%%%%%%%%%%%%%%%%%%%%%
%%%%                                                                  %%%%%
%%%%      NICTA Energy System Test Case Archive (NESTA) - v0.3.0      %%%%%
%%%%              Optimal Power Flow - Typical Operation              %%%%%
%%%%                        30 - April - 2015                         %%%%%
%%%%                                                                  %%%%%
%%%%%%%%%%%%%%%%%%%%%%%%%%%%%%%%%%%%%%%%%%%%%%%%%%%%%%%%%%%%%%%%%%%%%%%%%%%
% 
%   Reduced UK network
%   It is reduced model of GB network available here:
%
%   Reference:
%   [1] GB SQSS Reviw working group report. [Online]
%       http://www.nationalgrid.com/uk/Electricity/Codes/gbsqsscode/workinggroups/intgeneration/
%
%   Acknowledgement:
%      Thanks to Manolis Belivanis, Strathclyde University for pointing out the
%      source of data and helping out with details.
%      Please cite Manolis and Strathclyde if you are using this data set
%
%   W. A. Bukhsh, October 2012
%   send your questions and comments to : wbukhsh@gmail.com
%
function mpc = nesta_case29_edin
mpc.version = '2';
mpc.baseMVA = 100.0;

%% area data
%	area	refbus
mpc.areas = [
	1	 1;
];

%% bus data
%	bus_i	type	Pd	Qd	Gs	Bs	area	Vm	Va	baseKV	zone	Vmax	Vmin
mpc.bus = [
	1	 2	 468.0	 102.0	 0.0	 0.0	 1	    1.10000	   27.09982	 275.0	 1	    1.10000	    0.90000;
	2	 2	 513.0	 113.0	 0.0	 0.0	 1	    1.10000	   26.83213	 275.0	 1	    1.10000	    0.90000;
	3	 2	 555.0	 105.0	 0.0	 0.0	 1	    1.09038	   19.42768	 132.0	 1	    1.10000	    0.90000;
	4	 2	 1308.0	 317.0	 0.0	 0.0	 1	    1.10000	   13.34585	 275.0	 1	    1.10000	    0.90000;
	5	 2	 502.0	 128.0	 0.0	 0.0	 1	    1.10000	    7.77870	 400.0	 1	    1.10000	    0.90000;
	6	 2	 1176.0	 315.0	 0.0	 0.0	 1	    1.09911	    6.34843	 400.0	 1	    1.10000	    0.90000;
	7	 2	 745.0	 171.0	 0.0	 0.0	 1	    1.10000	   11.86567	 400.0	 1	    1.10000	    0.90000;
	8	 1	 117.5	 37.4	 0.0	 0.0	 1	    1.09659	   11.80746	 400.0	 1	    1.10000	    0.90000;
	9	 1	 130.0	 53.0	 0.0	 0.0	 1	    1.10000	    4.95230	 400.0	 1	    1.10000	    0.90000;
	10	 2	 2561.0	 465.0	 0.0	 0.0	 1	    1.09704	    4.35998	 400.0	 1	    1.10000	    0.90000;
	11	 2	 3360.0	 760.0	 0.0	 0.0	 1	    1.10000	    3.14548	 400.0	 1	    1.10000	    0.90000;
	12	 2	 1189.0	 338.0	 0.0	 0.0	 1	    1.10000	    4.97814	 400.0	 1	    1.10000	    0.90000;
	13	 1	 2524.0	 766.0	 0.0	 0.0	 1	    1.08864	    1.32651	 400.0	 1	    1.10000	    0.90000;
	14	 1	 1831.0	 566.5	 0.0	 0.0	 1	    1.09241	    2.69961	 400.0	 1	    1.10000	    0.90000;
	15	 2	 2633.0	 694.6	 0.0	 0.0	 1	    1.09784	    3.48651	 400.0	 1	    1.10000	    0.90000;
	16	 2	 1607.0	 655.0	 0.0	 0.0	 1	    1.10000	    6.00053	 400.0	 1	    1.10000	    0.90000;
	17	 2	 1081.0	 371.0	 0.0	 0.0	 1	    1.09152	    0.86454	 400.0	 1	    1.10000	    0.90000;
	18	 2	 5362.0	 1935.0	 0.0	 0.0	 1	    1.08369	   -0.15865	 400.0	 1	    1.10000	    0.90000;
	19	 2	 2019.0	 648.0	 0.0	 0.0	 1	    1.10000	    2.76206	 400.0	 1	    1.10000	    0.90000;
	20	 2	 1027.36	 305.8	 0.0	 0.0	 1	    1.09899	    1.57575	 400.0	 1	    1.10000	    0.90000;
	21	 2	 702.0	 202.2	 0.0	 0.0	 1	    1.09188	    0.66962	 400.0	 1	    1.10000	    0.90000;
	22	 2	 1820.0	 665.0	 0.0	 0.0	 1	    1.08733	   -0.28413	 400.0	 1	    1.10000	    0.90000;
	23	 2	 4734.0	 1337.0	 0.0	 0.0	 1	    1.09560	   -0.59473	 400.0	 1	    1.10000	    0.90000;
	24	 1	 1418.0	 528.0	 0.0	 0.0	 1	    1.08722	   -1.23369	 400.0	 1	    1.10000	    0.90000;
	25	 2	 9734.0	 2902.0	 0.0	 0.0	 1	    1.07353	   -2.64013	 400.0	 1	    1.10000	    0.90000;
	26	 2	 1424.0	 434.0	 0.0	 0.0	 1	    1.10000	    1.76769	 400.0	 1	    1.10000	    0.90000;
	27	 3	 457.0	 138.0	 0.0	 0.0	 1	    1.10000	    0.00000	 400.0	 1	    1.10000	    0.90000;
	28	 2	 2751.0	 841.0	 0.0	 0.0	 1	    1.09038	   -3.55406	 400.0	 1	    1.10000	    0.90000;
	29	 2	 2577.0	 356.0	 0.0	 0.0	 1	    1.09480	   -4.89753	 400.0	 1	    1.10000	    0.90000;
];

%% generator data
%	bus	Pg	Qg	Qmax	Qmin	Vg	mBase	status	Pmax	Pmin	Pc1	Pc2	Qc1min	Qc1max	Qc2min	Qc2max	ramp_agc	ramp_10	ramp_30	ramp_q	apf
mpc.gen = [
	1	 668.0	 -10.406	 139.22	 -188.46	 1.1	 100.0	 1	 668.0	 0.0	 0.0	 0.0	 0.0	 0.0	 0.0	 0.0	 0.0	 0.0	 0.0	 0.0	 0.0; % COW
	1	 0.0	 23.381	 105.23	 -66.3	 1.1	 100.0	 1	 554.28	 0.0	 0.0	 0.0	 0.0	 0.0	 0.0	 0.0	 0.0	 0.0	 0.0	 0.0	 0.0; % NG
	1	 0.0	 50.399	 180.0	 -100.0	 1.1	 100.0	 1	 300.0	 0.0	 0.0	 0.0	 0.0	 0.0	 0.0	 0.0	 0.0	 0.0	 0.0	 0.0	 0.0; % NG
	1	 0.0	 -0.557	 7.8	 -8.99	 1.1	 100.0	 1	 18.72	 0.0	 0.0	 0.0	 0.0	 0.0	 0.0	 0.0	 0.0	 0.0	 0.0	 0.0	 0.0; % PEL
	2	 0.0	 -1.762	 14.33	 -17.67	 1.1	 100.0	 1	 50.6	 0.0	 0.0	 0.0	 0.0	 0.0	 0.0	 0.0	 0.0	 0.0	 0.0	 0.0	 0.0; % NG
	2	 1524.0	 108.901	 1108.51	 -473.36	 1.1	 100.0	 1	 1524.0	 0.0	 0.0	 0.0	 0.0	 0.0	 0.0	 0.0	 0.0	 0.0	 0.0	 0.0	 0.0; % COW
	2	 0.0	 0.0	 0.0	 0.0	 1.1	 100.0	 1	 12.0	 0.0	 0.0	 0.0	 0.0	 0.0	 0.0	 0.0	 0.0	 0.0	 0.0	 0.0	 0.0; % NG
	3	 250.576	 35.929	 128.34	 -158.14	 1.09038	 100.0	 1	 550.99	 0.0	 0.0	 0.0	 0.0	 0.0	 0.0	 0.0	 0.0	 0.0	 0.0	 0.0	 0.0; % COW
	3	 19.0	 -3.51	 -3.51	 -3.51	 1.09038	 100.0	 1	 19.0	 0.0	 0.0	 0.0	 0.0	 0.0	 0.0	 0.0	 0.0	 0.0	 0.0	 0.0	 0.0; % NG
	3	 553.12	 68.438	 144.79	 -66.17	 1.09038	 100.0	 1	 553.12	 0.0	 0.0	 0.0	 0.0	 0.0	 0.0	 0.0	 0.0	 0.0	 0.0	 0.0	 0.0; % COW
	3	 15.12	 -0.255	 6.51	 -7.29	 1.09038	 100.0	 1	 15.12	 0.0	 0.0	 0.0	 0.0	 0.0	 0.0	 0.0	 0.0	 0.0	 0.0	 0.0	 0.0; % COW
	4	 0.0	 -0.685	 10.66	 -12.34	 1.1	 100.0	 1	 35.0	 0.0	 0.0	 0.0	 0.0	 0.0	 0.0	 0.0	 0.0	 0.0	 0.0	 0.0	 0.0; % PEL
	4	 2284.0	 340.342	 641.47	 -679.0	 1.1	 100.0	 1	 2284.0	 0.0	 0.0	 0.0	 0.0	 0.0	 0.0	 0.0	 0.0	 0.0	 0.0	 0.0	 0.0; % COW
	4	 0.0	 29.879	 150.34	 -137.86	 1.1	 100.0	 1	 440.0	 0.0	 0.0	 0.0	 0.0	 0.0	 0.0	 0.0	 0.0	 0.0	 0.0	 0.0	 0.0; % NG
	4	 259.0	 26.526	 137.27	 -122.95	 1.1	 100.0	 1	 259.0	 0.0	 0.0	 0.0	 0.0	 0.0	 0.0	 0.0	 0.0	 0.0	 0.0	 0.0	 0.0; % COW
	5	 0.0	 119.835	 416.47	 -429.77	 1.1	 100.0	 1	 1074.0	 0.0	 0.0	 0.0	 0.0	 0.0	 0.0	 0.0	 0.0	 0.0	 0.0	 0.0	 0.0; % COW
	5	 0.0	 2.849	 15.39	 -9.94	 1.1	 100.0	 1	 23.2	 0.0	 0.0	 0.0	 0.0	 0.0	 0.0	 0.0	 0.0	 0.0	 0.0	 0.0	 0.0; % PEL
	6	 0.0	 271.673	 439.66	 -484.8	 1.09911	 100.0	 1	 1390.92	 0.0	 0.0	 0.0	 0.0	 0.0	 0.0	 0.0	 0.0	 0.0	 0.0	 0.0	 0.0; % COW
	6	 0.0	 1.11	 24.8	 -25.5	 1.09911	 100.0	 1	 33.0	 0.0	 0.0	 0.0	 0.0	 0.0	 0.0	 0.0	 0.0	 0.0	 0.0	 0.0	 0.0; % NG
	6	 0.0	 -2.194	 12.09	 -17.49	 1.09911	 100.0	 1	 49.4	 0.0	 0.0	 0.0	 0.0	 0.0	 0.0	 0.0	 0.0	 0.0	 0.0	 0.0	 0.0; % NG
	7	 0.0	 -10.082	 125.76	 -131.02	 1.1	 100.0	 1	 314.25	 0.0	 0.0	 0.0	 0.0	 0.0	 0.0	 0.0	 0.0	 0.0	 0.0	 0.0	 0.0; % NG
	7	 1215.0	 -34.923	 681.34	 -469.07	 1.1	 100.0	 1	 1215.0	 0.0	 0.0	 0.0	 0.0	 0.0	 0.0	 0.0	 0.0	 0.0	 0.0	 0.0	 0.0; % NUC
	7	 1102.0	 -12.802	 220.34	 -205.24	 1.1	 100.0	 1	 1102.0	 0.0	 0.0	 0.0	 0.0	 0.0	 0.0	 0.0	 0.0	 0.0	 0.0	 0.0	 0.0; % COW
	10	 1207.0	 60.13	 559.19	 -539.68	 1.09704	 100.0	 1	 1207.0	 0.0	 0.0	 0.0	 0.0	 0.0	 0.0	 0.0	 0.0	 0.0	 0.0	 0.0	 0.0; % NUC
	10	 0.0	 30.276	 697.17	 -829.63	 1.09704	 100.0	 1	 1875.0	 0.0	 0.0	 0.0	 0.0	 0.0	 0.0	 0.0	 0.0	 0.0	 0.0	 0.0	 0.0; % COW
	10	 0.0	 18.892	 167.95	 -138.04	 1.09704	 100.0	 1	 420.0	 0.0	 0.0	 0.0	 0.0	 0.0	 0.0	 0.0	 0.0	 0.0	 0.0	 0.0	 0.0; % COW
	11	 0.0	 -57.6	 -57.6	 -57.6	 1.1	 100.0	 1	 180.0	 0.0	 0.0	 0.0	 0.0	 0.0	 0.0	 0.0	 0.0	 0.0	 0.0	 0.0	 0.0; % NG
	11	 2406.0	 553.698	 1216.1	 -1006.32	 1.1	 100.0	 1	 2406.0	 0.0	 0.0	 0.0	 0.0	 0.0	 0.0	 0.0	 0.0	 0.0	 0.0	 0.0	 0.0; % COW
	11	 0.0	 358.733	 873.22	 -571.46	 1.1	 100.0	 1	 1987.0	 0.0	 0.0	 0.0	 0.0	 0.0	 0.0	 0.0	 0.0	 0.0	 0.0	 0.0	 0.0; % COW
	11	 0.0	 12.618	 94.22	 -75.21	 1.1	 100.0	 1	 155.0	 0.0	 0.0	 0.0	 0.0	 0.0	 0.0	 0.0	 0.0	 0.0	 0.0	 0.0	 0.0; % NG
	11	 1039.0	 214.775	 670.32	 -539.07	 1.1	 100.0	 1	 1039.0	 0.0	 0.0	 0.0	 0.0	 0.0	 0.0	 0.0	 0.0	 0.0	 0.0	 0.0	 0.0; % COW
	12	 980.0	 219.423	 579.98	 -418.12	 1.1	 100.0	 1	 980.0	 0.0	 0.0	 0.0	 0.0	 0.0	 0.0	 0.0	 0.0	 0.0	 0.0	 0.0	 0.0; % NUC
	12	 1885.0	 452.649	 960.05	 -853.06	 1.1	 100.0	 1	 1885.0	 0.0	 0.0	 0.0	 0.0	 0.0	 0.0	 0.0	 0.0	 0.0	 0.0	 0.0	 0.0; % COW
	12	 210.0	 17.428	 116.42	 -94.97	 1.1	 100.0	 1	 210.0	 0.0	 0.0	 0.0	 0.0	 0.0	 0.0	 0.0	 0.0	 0.0	 0.0	 0.0	 0.0; % NG
	12	 2004.0	 3.439	 344.48	 -575.52	 1.1	 100.0	 1	 2004.0	 0.0	 0.0	 0.0	 0.0	 0.0	 0.0	 0.0	 0.0	 0.0	 0.0	 0.0	 0.0; % COW
	15	 0.0	 876.741	 3535.03	 -2527.87	 1.09784	 100.0	 1	 7832.0	 0.0	 0.0	 0.0	 0.0	 0.0	 0.0	 0.0	 0.0	 0.0	 0.0	 0.0	 0.0; % NG
	16	 3987.0	 152.039	 1587.06	 -1289.62	 1.1	 100.0	 1	 3987.0	 0.0	 0.0	 0.0	 0.0	 0.0	 0.0	 0.0	 0.0	 0.0	 0.0	 0.0	 0.0; % NUC
	16	 7040.0	 169.021	 3653.23	 -3354.58	 1.1	 100.0	 1	 7040.0	 0.0	 0.0	 0.0	 0.0	 0.0	 0.0	 0.0	 0.0	 0.0	 0.0	 0.0	 0.0; % COW
	16	 1218.0	 102.95	 767.33	 -562.85	 1.1	 100.0	 1	 1218.0	 0.0	 0.0	 0.0	 0.0	 0.0	 0.0	 0.0	 0.0	 0.0	 0.0	 0.0	 0.0; % COW
	17	 2021.0	 814.229	 814.23	 -405.94	 1.09152	 100.0	 1	 2021.0	 0.0	 0.0	 0.0	 0.0	 0.0	 0.0	 0.0	 0.0	 0.0	 0.0	 0.0	 0.0; % COW
	18	 281.678	 884.97	 884.97	 -534.17	 1.08369	 100.0	 1	 1982.0	 0.0	 0.0	 0.0	 0.0	 0.0	 0.0	 0.0	 0.0	 0.0	 0.0	 0.0	 0.0; % COW
	18	 0.0	 40.02	 40.02	 -73.58	 1.08369	 100.0	 1	 228.0	 0.0	 0.0	 0.0	 0.0	 0.0	 0.0	 0.0	 0.0	 0.0	 0.0	 0.0	 0.0; % NG
	19	 2845.0	 769.938	 1336.63	 -1468.98	 1.1	 100.0	 1	 2845.0	 0.0	 0.0	 0.0	 0.0	 0.0	 0.0	 0.0	 0.0	 0.0	 0.0	 0.0	 0.0; % NUC
	19	 0.0	 17.248	 162.7	 -162.7	 1.1	 100.0	 1	 406.8	 0.0	 0.0	 0.0	 0.0	 0.0	 0.0	 0.0	 0.0	 0.0	 0.0	 0.0	 0.0; % COW
	20	 1200.0	 11.314	 621.14	 -523.38	 1.09899	 100.0	 1	 1200.0	 0.0	 0.0	 0.0	 0.0	 0.0	 0.0	 0.0	 0.0	 0.0	 0.0	 0.0	 0.0; % COW
	20	 0.0	 236.64	 236.64	 236.64	 1.09899	 100.0	 1	 360.0	 0.0	 0.0	 0.0	 0.0	 0.0	 0.0	 0.0	 0.0	 0.0	 0.0	 0.0	 0.0; % NG
	21	 665.0	 326.15	 326.15	 -306.07	 1.09188	 100.0	 1	 665.0	 0.0	 0.0	 0.0	 0.0	 0.0	 0.0	 0.0	 0.0	 0.0	 0.0	 0.0	 0.0; % COW
	22	 401.0	 189.72	 189.72	 -232.68	 1.08733	 100.0	 1	 401.0	 0.0	 0.0	 0.0	 0.0	 0.0	 0.0	 0.0	 0.0	 0.0	 0.0	 0.0	 0.0; % NG
	23	 3801.0	 1235.982	 1589.67	 -1388.27	 1.0956	 100.0	 1	 3801.0	 0.0	 0.0	 0.0	 0.0	 0.0	 0.0	 0.0	 0.0	 0.0	 0.0	 0.0	 0.0; % NUC
	23	 363.0	 -17.509	 84.81	 -153.99	 1.0956	 100.0	 1	 363.0	 0.0	 0.0	 0.0	 0.0	 0.0	 0.0	 0.0	 0.0	 0.0	 0.0	 0.0	 0.0; % COW
	23	 0.0	 131.326	 317.76	 -211.43	 1.0956	 100.0	 1	 470.4	 0.0	 0.0	 0.0	 0.0	 0.0	 0.0	 0.0	 0.0	 0.0	 0.0	 0.0	 0.0; % NG
	23	 4431.0	 858.099	 1200.81	 -1262.24	 1.0956	 100.0	 1	 4431.0	 0.0	 0.0	 0.0	 0.0	 0.0	 0.0	 0.0	 0.0	 0.0	 0.0	 0.0	 0.0; % COW
	23	 100.0	 0.0	 0.0	 0.0	 1.0956	 100.0	 1	 100.0	 0.0	 0.0	 0.0	 0.0	 0.0	 0.0	 0.0	 0.0	 0.0	 0.0	 0.0	 0.0; % SYNC
	25	 2123.0	 949.38	 949.38	 -947.42	 1.07353	 100.0	 1	 2123.0	 0.0	 0.0	 0.0	 0.0	 0.0	 0.0	 0.0	 0.0	 0.0	 0.0	 0.0	 0.0; % COW
	25	 0.0	 0.0	 0.0	 0.0	 1.07353	 100.0	 1	 1245.0	 0.0	 0.0	 0.0	 0.0	 0.0	 0.0	 0.0	 0.0	 0.0	 0.0	 0.0	 0.0; % COW
	26	 1966.0	 486.271	 881.44	 -431.35	 1.1	 100.0	 1	 1966.0	 0.0	 0.0	 0.0	 0.0	 0.0	 0.0	 0.0	 0.0	 0.0	 0.0	 0.0	 0.0; % COW
	26	 0.0	 123.27	 384.11	 -294.62	 1.1	 100.0	 1	 1131.0	 0.0	 0.0	 0.0	 0.0	 0.0	 0.0	 0.0	 0.0	 0.0	 0.0	 0.0	 0.0; % COW
	26	 3165.0	 748.822	 1254.53	 -1114.64	 1.1	 100.0	 1	 3165.0	 0.0	 0.0	 0.0	 0.0	 0.0	 0.0	 0.0	 0.0	 0.0	 0.0	 0.0	 0.0; % COW
	26	 1355.0	 0.0	 0.0	 0.0	 1.1	 100.0	 1	 1355.0	 0.0	 0.0	 0.0	 0.0	 0.0	 0.0	 0.0	 0.0	 0.0	 0.0	 0.0	 0.0; % COW
	27	 1081.0	 374.693	 666.03	 -541.79	 1.1	 100.0	 1	 1081.0	 0.0	 0.0	 0.0	 0.0	 0.0	 0.0	 0.0	 0.0	 0.0	 0.0	 0.0	 0.0; % COW
	27	 0.0	 36.973	 71.0	 0.0	 1.1	 100.0	 1	 300.0	 0.0	 0.0	 0.0	 0.0	 0.0	 0.0	 0.0	 0.0	 0.0	 0.0	 0.0	 0.0; % NG
	28	 0.0	 657.819	 657.82	 -579.7	 1.09038	 100.0	 1	 1320.0	 0.0	 0.0	 0.0	 0.0	 0.0	 0.0	 0.0	 0.0	 0.0	 0.0	 0.0	 0.0; % COW
	28	 0.0	 60.789	 60.79	 -71.21	 1.09038	 100.0	 1	 208.0	 0.0	 0.0	 0.0	 0.0	 0.0	 0.0	 0.0	 0.0	 0.0	 0.0	 0.0	 0.0; % NG
	29	 0.0	 290.272	 455.32	 -480.43	 1.0948	 100.0	 1	 1261.0	 0.0	 0.0	 0.0	 0.0	 0.0	 0.0	 0.0	 0.0	 0.0	 0.0	 0.0	 0.0; % PEL
	29	 905.0	 244.243	 403.35	 -412.03	 1.0948	 100.0	 1	 905.0	 0.0	 0.0	 0.0	 0.0	 0.0	 0.0	 0.0	 0.0	 0.0	 0.0	 0.0	 0.0; % COW
	29	 0.0	 0.0	 0.0	 0.0	 1.0948	 100.0	 1	 140.0	 0.0	 0.0	 0.0	 0.0	 0.0	 0.0	 0.0	 0.0	 0.0	 0.0	 0.0	 0.0; % NG
];

%% generator cost data
%	2	startup	shutdown	n	c(n-1)	...	c0
mpc.gencost = [
	2	 1500.0	 0.0	 3	   0.000000	   0.816753	   0.000000; % COW
	2	 1500.0	 0.0	 3	   0.000000	   1.075915	   0.000000; % NG
	2	 1500.0	 0.0	 3	   0.000000	   0.848101	   0.000000; % NG
	2	 1500.0	 0.0	 3	   0.000000	   6.890404	   0.000000; % PEL
	2	 1500.0	 0.0	 3	   0.000000	   1.123794	   0.000000; % NG
	2	 1500.0	 0.0	 3	   0.000000	   0.272726	   0.000000; % COW
	2	 1500.0	 0.0	 3	   0.000000	   1.154216	   0.000000; % NG
	2	 1500.0	 0.0	 3	   0.000000	   0.860523	   0.000000; % COW
	2	 1500.0	 0.0	 3	   0.000000	   0.828380	   0.000000; % NG
	2	 1500.0	 0.0	 3	   0.000000	   0.833091	   0.000000; % COW
	2	 1500.0	 0.0	 3	   0.000000	   0.834253	   0.000000; % COW
	2	 1500.0	 0.0	 3	   0.000000	   6.851702	   0.000000; % PEL
	2	 1500.0	 0.0	 3	   0.000000	   0.273494	   0.000000; % COW
	2	 1500.0	 0.0	 3	   0.000000	   0.976266	   0.000000; % NG
	2	 1500.0	 0.0	 3	   0.000000	   0.474393	   0.000000; % COW
	2	 1500.0	 0.0	 3	   0.000000	   1.242228	   0.000000; % COW
	2	 1500.0	 0.0	 3	   0.000000	   7.220847	   0.000000; % PEL
	2	 1500.0	 0.0	 3	   0.000000	   1.130158	   0.000000; % COW
	2	 1500.0	 0.0	 3	   0.000000	   1.348240	   0.000000; % NG
	2	 1500.0	 0.0	 3	   0.000000	   1.432190	   0.000000; % NG
	2	 1500.0	 0.0	 3	   0.000000	   1.098766	   0.000000; % NG
	2	 1500.0	 0.0	 3	   0.000000	   0.238951	   0.000000; % NUC
	2	 1500.0	 0.0	 3	   0.000000	   0.589471	   0.000000; % COW
	2	 1500.0	 0.0	 3	   0.000000	   0.225459	   0.000000; % NUC
	2	 1500.0	 0.0	 3	   0.000000	   0.905478	   0.000000; % COW
	2	 1500.0	 0.0	 3	   0.000000	   1.021435	   0.000000; % COW
	2	 1500.0	 0.0	 3	   0.000000	   1.179066	   0.000000; % NG
	2	 1500.0	 0.0	 3	   0.000000	   0.737942	   0.000000; % COW
	2	 1500.0	 0.0	 3	   0.000000	   1.188357	   0.000000; % COW
	2	 1500.0	 0.0	 3	   0.000000	   1.118090	   0.000000; % NG
	2	 1500.0	 0.0	 3	   0.000000	   0.685077	   0.000000; % COW
	2	 1500.0	 0.0	 3	   0.000000	   0.217202	   0.000000; % NUC
	2	 1500.0	 0.0	 3	   0.000000	   0.550879	   0.000000; % COW
	2	 1500.0	 0.0	 3	   0.000000	   0.881717	   0.000000; % NG
	2	 1500.0	 0.0	 3	   0.000000	   0.326811	   0.000000; % COW
	2	 1500.0	 0.0	 3	   0.000000	   1.294938	   0.000000; % NG
	2	 1500.0	 0.0	 3	   0.000000	   0.214075	   0.000000; % NUC
	2	 1500.0	 0.0	 3	   0.000000	   0.674370	   0.000000; % COW
	2	 1500.0	 0.0	 3	   0.000000	   0.843337	   0.000000; % COW
	2	 1500.0	 0.0	 3	   0.000000	   0.780507	   0.000000; % COW
	2	 1500.0	 0.0	 3	   0.000000	   0.896300	   0.000000; % COW
	2	 1500.0	 0.0	 3	   0.000000	   1.192504	   0.000000; % NG
	2	 1500.0	 0.0	 3	   0.000000	   0.197892	   0.000000; % NUC
	2	 1500.0	 0.0	 3	   0.000000	   0.917884	   0.000000; % COW
	2	 1500.0	 0.0	 3	   0.000000	   0.693054	   0.000000; % COW
	2	 1500.0	 0.0	 3	   0.000000	   0.972377	   0.000000; % NG
	2	 1500.0	 0.0	 3	   0.000000	   0.703284	   0.000000; % COW
	2	 1500.0	 0.0	 3	   0.000000	   0.784566	   0.000000; % NG
	2	 1500.0	 0.0	 3	   0.000000	   0.202010	   0.000000; % NUC
	2	 1500.0	 0.0	 3	   0.000000	   0.547247	   0.000000; % COW
	2	 1500.0	 0.0	 3	   0.000000	   1.170062	   0.000000; % NG
	2	 1500.0	 0.0	 3	   0.000000	   0.646308	   0.000000; % COW
	2	 1500.0	 0.0	 3	   0.000000	   0.000000	   0.000000; % SYNC
	2	 1500.0	 0.0	 3	   0.000000	   0.603325	   0.000000; % COW
	2	 1500.0	 0.0	 3	   0.000000	   0.941578	   0.000000; % COW
	2	 1500.0	 0.0	 3	   0.000000	   0.701512	   0.000000; % COW
	2	 1500.0	 0.0	 3	   0.000000	   1.117037	   0.000000; % COW
	2	 1500.0	 0.0	 3	   0.000000	   0.777734	   0.000000; % COW
	2	 1500.0	 0.0	 3	   0.000000	   0.793837	   0.000000; % COW
	2	 1500.0	 0.0	 3	   0.000000	   0.494775	   0.000000; % COW
	2	 1500.0	 0.0	 3	   0.000000	   1.261632	   0.000000; % NG
	2	 1500.0	 0.0	 3	   0.000000	   1.307594	   0.000000; % COW
	2	 1500.0	 0.0	 3	   0.000000	   1.062217	   0.000000; % NG
	2	 1500.0	 0.0	 3	   0.000000	   6.429936	   0.000000; % PEL
	2	 1500.0	 0.0	 3	   0.000000	   0.545667	   0.000000; % COW
	2	 1500.0	 0.0	 3	   0.000000	   0.943798	   0.000000; % NG
];

%% branch data
%	fbus	tbus	r	x	b	rateA	rateB	rateC	ratio	angle	status	angmin	angmax
mpc.branch = [
	1	 2	 0.0122	 0.02	 0.0856	 525.0	 525.0	 525.0	 0.0	 0.0	 1	 -30.0	 30.0;
	1	 3	 0.007	 0.15	 0.052	 132.0	 132.0	 132.0	 1.0	 2.0	 1	 -30.0	 30.0;
	1	 2	 0.0122	 0.02	 0.2844	 525.0	 525.0	 525.0	 0.0	 0.0	 1	 -30.0	 30.0;
	1	 3	 0.007	 0.15	 0.052	 132.0	 132.0	 132.0	 1.0	 2.0	 1	 -30.0	 30.0;
	2	 4	 0.0004	 0.065	 0.4454	 486	 486	 486	 0.0	 0.0	 1	 -30.0	 30.0;
	2	 4	 0.0004	 0.065	 0.5545	 486	 486	 486	 0.0	 0.0	 1	 -30.0	 30.0;
	4	 7	 0.00211	 0.0135	 0.1174	 1090.0	 1090.0	 1090.0	 0.0	 0.0	 1	 -30.0	 30.0;
	4	 6	 0.0013	 0.023	 0.1496	 1372	 1372	 1372	 0.0	 0.0	 1	 -30.0	 30.0;
	4	 6	 0.0013	 0.023	 0.1758	 1120.0	 1120.0	 1120.0	 0.0	 0.0	 1	 -30.0	 30.0;
	4	 5	 0.001	 0.024	 0.125	 1000.0	 1000.0	 1000.0	 0.0	 0.0	 1	 -30.0	 30.0;
	4	 5	 0.001	 0.024	 0.125	 1000.0	 1000.0	 1000.0	 0.0	 0.0	 1	 -30.0	 30.0;
	4	 7	 0.0021	 0.0135	 0.1538	 1090.0	 1090.0	 1090.0	 0.0	 0.0	 1	 -30.0	 30.0;
	5	 6	 0.00085	 0.01051	 0.38254	 1390.0	 1390.0	 1390.0	 0.0	 0.0	 1	 -30.0	 30.0;
	5	 6	 0.00151	 0.01613	 0.59296	 1390.0	 1390.0	 1390.0	 0.0	 0.0	 1	 -30.0	 30.0;
	6	 9	 0.00078	 0.00852	 0.0737	 2100.0	 2100.0	 2100.0	 0.0	 0.0	 1	 -30.0	 30.0;
	6	 9	 0.00078	 0.00852	 0.4635	 2100.0	 2100.0	 2100.0	 0.0	 0.0	 1	 -30.0	 30.0;
	7	 8	 0.0004	 0.0001	 0.728	 2180.0	 2180.0	 2180.0	 0.0	 0.0	 1	 -30.0	 30.0;
	7	 8	 0.0004	 0.0001	 1.2872	 2500.0	 2500.0	 2500.0	 0.0	 0.0	 1	 -30.0	 30.0;
	7	 6	 0.003	 0.2	 0.2939	 158	 158	 158	 0.0	 0.0	 1	 -30.0	 30.0;
	7	 6	 0.003	 0.2	 0.2939	 158	 158	 158	 0.0	 0.0	 1	 -30.0	 30.0;
	8	 10	 0.00083	 0.0175	 0.6624	 1803	 1803	 1803	 0.0	 0.0	 1	 -30.0	 30.0;
	8	 10	 0.00083	 0.0175	 0.6624	 1803	 1803	 1803	 0.0	 0.0	 1	 -30.0	 30.0;
	9	 11	 0.00164	 0.0163	 0.4868	 1390.0	 1390.0	 1390.0	 0.0	 0.0	 1	 -30.0	 30.0;
	9	 11	 0.00164	 0.0163	 0.4868	 1390.0	 1390.0	 1390.0	 0.0	 0.0	 1	 -30.0	 30.0;
	9	 10	 0.00352	 0.02453	 0.1898	 855.0	 855.0	 855.0	 0.0	 0.0	 1	 -30.0	 30.0;
	9	 10	 0.00492	 0.0343	 0.2502	 775.0	 775.0	 775.0	 0.0	 0.0	 1	 -30.0	 30.0;
	10	 15	 0.00053	 0.00835	 5.373	 3776	 3776	 3776	 0.0	 0.0	 1	 -30.0	 30.0;
	10	 15	 0.00052	 0.0063	 1.0636	 4020.0	 4020.0	 4020.0	 0.0	 0.0	 1	 -30.0	 30.0;
	11	 15	 0.0007	 0.042	 0.3907	 752	 752	 752	 0.0	 0.0	 1	 -30.0	 30.0;
	11	 15	 0.00099	 0.042	 0.5738	 752	 752	 752	 0.0	 0.0	 1	 -30.0	 30.0;
	11	 13	 0.0004	 0.0052	 0.2498	 2170.0	 2170.0	 2170.0	 0.0	 0.0	 1	 -30.0	 30.0;
	11	 13	 0.0004	 0.0052	 0.2664	 2210.0	 2210.0	 2210.0	 0.0	 0.0	 1	 -30.0	 30.0;
	11	 12	 0.0001	 0.0085	 0.0798	 3320.0	 3320.0	 3320.0	 0.0	 0.0	 1	 -30.0	 30.0;
	11	 12	 0.0001	 0.0085	 0.0798	 3320.0	 3320.0	 3320.0	 0.0	 0.0	 1	 -30.0	 30.0;
	12	 13	 0.00096	 0.01078	 0.385	 2919	 2919	 2919	 0.0	 0.0	 1	 -30.0	 30.0;
	12	 18	 0.00074	 0.009	 0.2911	 2400.0	 2400.0	 2400.0	 1.0	 2.0	 1	 -30.0	 30.0;
	12	 18	 0.00097	 0.009	 0.3835	 2400.0	 2400.0	 2400.0	 0.0	 0.0	 1	 -30.0	 30.0;
	12	 13	 0.00096	 0.01078	 0.385	 2919	 2919	 2919	 1.0	 2.0	 1	 -30.0	 30.0;
	13	 18	 0.00049	 0.007	 0.1943	 2400.0	 2400.0	 2400.0	 0.0	 0.0	 1	 -30.0	 30.0;
	13	 18	 0.00084	 0.007	 0.7759	 2400.0	 2400.0	 2400.0	 0.0	 0.0	 1	 -30.0	 30.0;
	13	 15	 0.00137	 0.023	 0.6643	 1240.0	 1240.0	 1240.0	 0.0	 0.0	 1	 -30.0	 30.0;
	13	 15	 0.00164	 0.023	 0.1104	 955.0	 955.0	 955.0	 0.0	 0.0	 1	 -30.0	 30.0;
	13	 14	 0.00107	 0.01163	 1.1745	 1040.0	 1040.0	 1040.0	 0.0	 0.0	 1	 -30.0	 30.0;
	13	 14	 0.00082	 0.01201	 1.2125	 1040.0	 1040.0	 1040.0	 0.0	 0.0	 1	 -30.0	 30.0;
	14	 16	 0.0005	 0.016	 0.2795	 1974	 1974	 1974	 0.0	 0.0	 1	 -30.0	 30.0;
	14	 16	 0.005	 0.018	 0.1466	 625.0	 625.0	 625.0	 0.0	 0.0	 1	 -30.0	 30.0;
	15	 16	 0.00033	 0.0052	 0.3534	 2770.0	 2770.0	 2770.0	 0.0	 0.0	 1	 -30.0	 30.0;
	15	 16	 0.00016	 0.00172	 0.3992	 5540.0	 5540.0	 5540.0	 0.0	 0.0	 1	 -30.0	 30.0;
	15	 14	 0.00019	 0.00222	 0.7592	 5000.0	 5000.0	 5000.0	 0.0	 0.0	 1	 -30.0	 30.0;
	15	 14	 0.00018	 0.00222	 0.5573	 5000.0	 5000.0	 5000.0	 0.0	 0.0	 1	 -30.0	 30.0;
	16	 19	 0.00056	 0.0141	 0.4496	 2239	 2239	 2239	 0.0	 0.0	 1	 -30.0	 30.0;
	16	 19	 0.00056	 0.0141	 0.4496	 2239	 2239	 2239	 0.0	 0.0	 1	 -30.0	 30.0;
	17	 16	 0.001	 0.01072	 0.2651	 2150.0	 2150.0	 2150.0	 0.0	 0.0	 1	 -30.0	 30.0;
	17	 16	 0.001	 0.01072	 0.4573	 1890.0	 1890.0	 1890.0	 0.0	 0.0	 1	 -30.0	 30.0;
	17	 22	 0.00068	 0.0097	 0.4566	 2100.0	 2100.0	 2100.0	 0.0	 0.0	 1	 -30.0	 30.0;
	17	 22	 0.00069	 0.0097	 0.4574	 2100.0	 2100.0	 2100.0	 0.0	 0.0	 1	 -30.0	 30.0;
	18	 17	 0.00042	 0.0018	 0.2349	 3100.0	 3100.0	 3100.0	 0.0	 0.0	 1	 -30.0	 30.0;
	18	 17	 0.00042	 0.0018	 0.2349	 3460.0	 3460.0	 3460.0	 0.0	 0.0	 1	 -30.0	 30.0;
	18	 23	 0.00138	 0.0096	 0.4829	 1970.0	 1970.0	 1970.0	 0.0	 0.0	 1	 -30.0	 30.0;
	18	 23	 0.00117	 0.0096	 0.4122	 1970.0	 1970.0	 1970.0	 0.0	 0.0	 1	 -30.0	 30.0;
	20	 26	 0.00035	 0.0023	 0.2249	 2780.0	 2780.0	 2780.0	 0.0	 0.0	 1	 -30.0	 30.0;
	20	 26	 0.00035	 0.0023	 0.2249	 2780.0	 2780.0	 2780.0	 0.0	 0.0	 1	 -30.0	 30.0;
	20	 19	 0.00178	 0.0213	 0.6682	 1478	 1478	 1478	 0.0	 0.0	 1	 -30.0	 30.0;
	20	 19	 0.00132	 0.0143	 0.3656	 1590.0	 1590.0	 1590.0	 0.0	 0.0	 1	 -30.0	 30.0;
	21	 16	 0.00145	 0.01824	 0.9169	 1727	 1727	 1727	 0.0	 0.0	 1	 -30.0	 30.0;
	21	 16	 0.00145	 0.01824	 0.9169	 1727	 1727	 1727	 0.0	 0.0	 1	 -30.0	 30.0;
	21	 25	 0.00025	 0.01	 0.1586	 2780.0	 2780.0	 2780.0	 0.0	 0.0	 1	 -30.0	 30.0;
	21	 25	 0.00025	 0.01	 0.1586	 2780.0	 2780.0	 2780.0	 0.0	 0.0	 1	 -30.0	 30.0;
	21	 20	 0.0012	 0.0048	 0.4446	 2780.0	 2780.0	 2780.0	 0.0	 0.0	 1	 -30.0	 30.0;
	21	 20	 0.0012	 0.0048	 0.7	 2780.0	 2780.0	 2780.0	 0.0	 0.0	 1	 -30.0	 30.0;
	21	 19	 0.00037	 0.0059	 0.294	 3030.0	 3030.0	 3030.0	 0.0	 0.0	 1	 -30.0	 30.0;
	21	 19	 0.00037	 0.0059	 0.2955	 2780.0	 2780.0	 2780.0	 0.0	 0.0	 1	 -30.0	 30.0;
	22	 16	 0.00178	 0.0172	 0.8403	 1827	 1827	 1827	 0.0	 0.0	 1	 -30.0	 30.0;
	22	 16	 0.00178	 0.0172	 0.627	 1827	 1827	 1827	 0.0	 0.0	 1	 -30.0	 30.0;
	22	 25	 0.00037	 0.0041	 0.4098	 3275.0	 3275.0	 3275.0	 0.0	 0.0	 1	 -30.0	 30.0;
	22	 25	 0.00034	 0.0041	 0.429	 3275.0	 3275.0	 3275.0	 0.0	 0.0	 1	 -30.0	 30.0;
	22	 21	 0.00019	 0.00111	 0.1232	 2780.0	 2780.0	 2780.0	 0.0	 0.0	 1	 -30.0	 30.0;
	22	 21	 0.00048	 0.0061	 0.3041	 2780.0	 2780.0	 2780.0	 0.0	 0.0	 1	 -30.0	 30.0;
	23	 29	 0.00151	 0.0182	 0.53	 1730	 1730	 1730	 0.0	 0.0	 1	 -30.0	 30.0;
	23	 24	 0.00086	 0.0008	 0.9622	 2780.0	 2780.0	 2780.0	 0.0	 0.0	 1	 -30.0	 30.0;
	23	 24	 0.00023	 0.0007	 2.8447	 4400.0	 4400.0	 4400.0	 0.0	 0.0	 1	 -30.0	 30.0;
	23	 22	 0.00055	 0.003	 0.3468	 2780.0	 2780.0	 2780.0	 0.0	 0.0	 1	 -30.0	 30.0;
	23	 22	 0.00039	 0.003	 0.2466	 2770.0	 2770.0	 2770.0	 0.0	 0.0	 1	 -30.0	 30.0;
	23	 29	 0.00151	 0.0182	 0.53	 1730	 1730	 1730	 0.0	 0.0	 1	 -30.0	 30.0;
	24	 28	 0.00068	 0.007	 0.2388	 2210.0	 2210.0	 2210.0	 0.0	 0.0	 1	 -30.0	 30.0;
	24	 25	 0.00104	 0.0091	 0.2918	 1390.0	 1390.0	 1390.0	 0.0	 0.0	 1	 -30.0	 30.0;
	24	 25	 0.00104	 0.0091	 0.2918	 1390.0	 1390.0	 1390.0	 0.0	 0.0	 1	 -30.0	 30.0;
	24	 28	 0.00068	 0.007	 0.2388	 2210.0	 2210.0	 2210.0	 0.0	 0.0	 1	 -30.0	 30.0;
	25	 26	 0.0002	 0.0057	 0.532	 5539	 5539	 5539	 0.0	 0.0	 1	 -30.0	 30.0;
	25	 26	 0.0002	 0.0057	 0.532	 5539	 5539	 5539	 0.0	 0.0	 1	 -30.0	 30.0;
	27	 26	 0.0002	 0.00503	 0.1797	 3100.0	 3100.0	 3100.0	 0.0	 0.0	 1	 -30.0	 30.0;
	27	 26	 0.0002	 0.00503	 0.1797	 3100.0	 3100.0	 3100.0	 0.0	 0.0	 1	 -30.0	 30.0;
	28	 27	 0.00038	 0.00711	 0.2998	 3070.0	 3070.0	 3070.0	 0.0	 0.0	 1	 -30.0	 30.0;
	28	 27	 0.00038	 0.00711	 0.2998	 3070.0	 3070.0	 3070.0	 0.0	 0.0	 1	 -30.0	 30.0;
	29	 28	 0.00051	 0.00796	 0.34	 2780.0	 2780.0	 2780.0	 0.0	 0.0	 1	 -30.0	 30.0;
	29	 28	 0.00051	 0.00796	 0.34	 2780.0	 2780.0	 2780.0	 0.0	 0.0	 1	 -30.0	 30.0;
	3	 4	 0.003	 0.041	 0.0044	 648.0	 648.0	 648.0	 0.0	 0.0	 1	 -30.0	 30.0;
	3	 4	 0.003	 0.041	 0.044	 648.0	 648.0	 648.0	 0.0	 0.0	 1	 -30.0	 30.0;
	3	 2	 0.03004	 0.077	 0.0124	 383	 383	 383	 0.0	 0.0	 1	 -30.0	 30.0;
];

% INFO    : === Translation Options ===
% INFO    : Phase Angle Bound:           30.0 (deg.)
% INFO    : Gen Active Cost Model:       stat
% INFO    : Line Capacity Model:         ub
% INFO    : AC OPF Solution File:        nesta_case29_edin.dat.opf.sol
% INFO    : 
% INFO    : === Generator Classification Notes ===
% INFO    : PEL    4   -     1.77
% INFO    : SYNC   1   -     0.00
% INFO    : NUC    6   -    18.65
% INFO    : COW    35  -    64.33
% INFO    : NG     20  -    15.25
% INFO    : 
% INFO    : === Generator Active Cost Stat Model Notes ===
% INFO    : Updated Generator Cost: COW - 0.01 0.01 0.0 -> 0 0.816752517305 0
% INFO    : Updated Generator Cost: NG - 395.37 4.42 0.0 -> 0 1.07591506031 0
% INFO    : Updated Generator Cost: NG - 86.38 56.56 0.33 -> 0 0.848101387923 0
% INFO    : Updated Generator Cost: PEL - 0.01 0.01 0.0 -> 0 6.89040448697 0
% INFO    : Updated Generator Cost: NG - 0.01 0.01 0.0 -> 0 1.12379444654 0
% INFO    : Updated Generator Cost: COW - 400.68 130.0 0.0 -> 0 0.272726200823 0
% INFO    : Updated Generator Cost: NG - 400.68 130.0 0.0 -> 0 1.15421586923 0
% INFO    : Updated Generator Cost: COW - 0.01 0.01 0.0 -> 0 0.860522910071 0
% INFO    : Updated Generator Cost: NG - 0.01 0.01 0.0 -> 0 0.828380061702 0
% INFO    : Updated Generator Cost: COW - 395.37 4.42 0.0 -> 0 0.833090708229 0
% INFO    : Updated Generator Cost: COW - 0.01 0.01 0.0 -> 0 0.8342529247 0
% INFO    : Updated Generator Cost: PEL - 0.01 0.01 0.0 -> 0 6.85170227067 0
% INFO    : Updated Generator Cost: COW - 382.24 12.38 0.33 -> 0 0.273493880217 0
% INFO    : Updated Generator Cost: NG - 86.38 56.56 0.33 -> 0 0.976265920944 0
% INFO    : Updated Generator Cost: COW - 400.68 130.0 0.0 -> 0 0.474392699762 0
% INFO    : Updated Generator Cost: COW - 86.38 118.0 0.0 -> 0 1.24222765117 0
% INFO    : Updated Generator Cost: PEL - 400.68 130.0 0.0 -> 0 7.22084747953 0
% INFO    : Updated Generator Cost: COW - 0.01 0.01 0.0 -> 0 1.13015760602 0
% INFO    : Updated Generator Cost: NG - 395.37 4.42 0.0 -> 0 1.34823984185 0
% INFO    : Updated Generator Cost: NG - 0.01 0.01 0.0 -> 0 1.432189579 0
% INFO    : Updated Generator Cost: NG - 0.01 0.01 0.0 -> 0 1.09876578632 0
% INFO    : Updated Generator Cost: NUC - 86.38 118.0 0.0 -> 0 0.238951071542 0
% INFO    : Updated Generator Cost: COW - 400.68 16.38 0.39 -> 0 0.589470690025 0
% INFO    : Updated Generator Cost: NUC - 86.38 118.0 0.0 -> 0 0.225459491478 0
% INFO    : Updated Generator Cost: COW - 400.68 130.0 0.0 -> 0 0.905477584634 0
% INFO    : Updated Generator Cost: COW - 639.98 19.38 0.1 -> 0 1.02143540066 0
% INFO    : Updated Generator Cost: NG - 0.01 0.01 0.0 -> 0 1.17906644309 0
% INFO    : Updated Generator Cost: COW - 86.38 118.0 0.0 -> 0 0.737941660012 0
% INFO    : Updated Generator Cost: COW - 382.24 12.38 0.33 -> 0 1.18835683577 0
% INFO    : Updated Generator Cost: NG - 400.68 130.0 0.0 -> 0 1.11809039694 0
% INFO    : Updated Generator Cost: COW - 400.68 130.0 0.0 -> 0 0.685076616687 0
% INFO    : Updated Generator Cost: NUC - 382.15 10.3 0.01 -> 0 0.217202479851 0
% INFO    : Updated Generator Cost: COW - 400.68 130.0 0.0 -> 0 0.550878743512 0
% INFO    : Updated Generator Cost: NG - 400.68 130.0 0.0 -> 0 0.881717099614 0
% INFO    : Updated Generator Cost: COW - 86.38 56.56 0.33 -> 0 0.326811420496 0
% INFO    : Updated Generator Cost: NG - 382.24 12.38 0.33 -> 0 1.29493784819 0
% INFO    : Updated Generator Cost: NUC - 382.24 12.38 0.33 -> 0 0.214074898819 0
% INFO    : Updated Generator Cost: COW - 400.68 130.0 0.0 -> 0 0.674369655607 0
% INFO    : Updated Generator Cost: COW - 400.68 130.0 0.0 -> 0 0.843336933483 0
% INFO    : Updated Generator Cost: COW - 382.24 12.38 0.33 -> 0 0.780507404904 0
% INFO    : Updated Generator Cost: COW - 382.24 12.38 0.33 -> 0 0.89629951765 0
% INFO    : Updated Generator Cost: NG - 400.68 130.0 0.0 -> 0 1.19250393144 0
% INFO    : Updated Generator Cost: NUC - 400.68 130.0 0.0 -> 0 0.197892159616 0
% INFO    : Updated Generator Cost: COW - 0.01 0.01 0.0 -> 0 0.917883865374 0
% INFO    : Updated Generator Cost: COW - 392.15 10.3 0.01 -> 0 0.693053871899 0
% INFO    : Updated Generator Cost: NG - 0.01 0.01 0.0 -> 0 0.972377019745 0
% INFO    : Updated Generator Cost: COW - 400.68 130.0 0.0 -> 0 0.703284201564 0
% INFO    : Updated Generator Cost: NG - 400.68 130.0 0.0 -> 0 0.784565844945 0
% INFO    : Updated Generator Cost: NUC - 382.24 12.38 0.33 -> 0 0.202010136941 0
% INFO    : Updated Generator Cost: COW - 639.98 19.38 0.1 -> 0 0.547247058054 0
% INFO    : Updated Generator Cost: NG - 382.15 10.3 0.01 -> 0 1.17006178492 0
% INFO    : Updated Generator Cost: COW - 400.68 130.0 0.0 -> 0 0.646308035682 0
% INFO    : Updated Generator Cost: SYNC - 650.0 130.0 0.0 -> 0 0.0 0
% INFO    : Updated Generator Cost: COW - 400.68 130.0 0.0 -> 0 0.603325182172 0
% INFO    : Updated Generator Cost: COW - 665.11 11.84 0.33 -> 0 0.941578147339 0
% INFO    : Updated Generator Cost: COW - 382.24 12.38 0.33 -> 0 0.701511759657 0
% INFO    : Updated Generator Cost: COW - 400.68 16.38 0.39 -> 0 1.11703698323 0
% INFO    : Updated Generator Cost: COW - 400.68 130.0 0.0 -> 0 0.777734366515 0
% INFO    : Updated Generator Cost: COW - 665.11 11.84 0.33 -> 0 0.793836699277 0
% INFO    : Updated Generator Cost: COW - 86.38 118.0 0.0 -> 0 0.494774702395 0
% INFO    : Updated Generator Cost: NG - 0.01 0.01 0.0 -> 0 1.26163172626 0
% INFO    : Updated Generator Cost: COW - 400.68 130.0 0.0 -> 0 1.30759446484 0
% INFO    : Updated Generator Cost: NG - 400.68 130.0 0.0 -> 0 1.06221724508 0
% INFO    : Updated Generator Cost: PEL - 86.38 118.0 0.0 -> 0 6.42993586036 0
% INFO    : Updated Generator Cost: COW - 400.68 130.0 0.0 -> 0 0.545667036755 0
% INFO    : Updated Generator Cost: NG - 650.0 130.0 0.0 -> 0 0.943797672284 0
% INFO    : 
% INFO    : === Line Capacity UB Model Notes ===
% INFO    : Updated Thermal Rating: on line 2-4 : Rate A, Rate B, Rate C , 760.0, 760.0, 760.0 -> 486
% INFO    : Updated Thermal Rating: on line 2-4 : Rate A, Rate B, Rate C , 760.0, 760.0, 760.0 -> 486
% INFO    : Updated Thermal Rating: on line 4-6 : Rate A, Rate B, Rate C , 1500.0, 1500.0, 1500.0 -> 1372
% INFO    : Updated Thermal Rating: on line 7-6 : Rate A, Rate B, Rate C , 950.0, 950.0, 950.0 -> 158
% INFO    : Updated Thermal Rating: on line 7-6 : Rate A, Rate B, Rate C , 950.0, 950.0, 950.0 -> 158
% INFO    : Updated Thermal Rating: on line 8-10 : Rate A, Rate B, Rate C , 3070.0, 3070.0, 3070.0 -> 1803
% INFO    : Updated Thermal Rating: on line 8-10 : Rate A, Rate B, Rate C , 3070.0, 3070.0, 3070.0 -> 1803
% INFO    : Updated Thermal Rating: on line 10-15 : Rate A, Rate B, Rate C , 4840.0, 4840.0, 4840.0 -> 3776
% INFO    : Updated Thermal Rating: on line 11-15 : Rate A, Rate B, Rate C , 2520.0, 2520.0, 2520.0 -> 752
% INFO    : Updated Thermal Rating: on line 11-15 : Rate A, Rate B, Rate C , 2520.0, 2520.0, 2520.0 -> 752
% INFO    : Updated Thermal Rating: on line 12-13 : Rate A, Rate B, Rate C , 3100.0, 3100.0, 3100.0 -> 2919
% INFO    : Updated Thermal Rating: on transformer 12-13 : Rate A, Rate B, Rate C , 3100.0, 3100.0, 3100.0 -> 2919
% INFO    : Updated Thermal Rating: on line 14-16 : Rate A, Rate B, Rate C , 2580.0, 2580.0, 2580.0 -> 1974
% INFO    : Updated Thermal Rating: on line 16-19 : Rate A, Rate B, Rate C , 2780.0, 2780.0, 2780.0 -> 2239
% INFO    : Updated Thermal Rating: on line 16-19 : Rate A, Rate B, Rate C , 3820.0, 3820.0, 3820.0 -> 2239
% INFO    : Updated Thermal Rating: on line 20-19 : Rate A, Rate B, Rate C , 1590.0, 1590.0, 1590.0 -> 1478
% INFO    : Updated Thermal Rating: on line 21-16 : Rate A, Rate B, Rate C , 2780.0, 2780.0, 2780.0 -> 1727
% INFO    : Updated Thermal Rating: on line 21-16 : Rate A, Rate B, Rate C , 2780.0, 2780.0, 2780.0 -> 1727
% INFO    : Updated Thermal Rating: on line 22-16 : Rate A, Rate B, Rate C , 2010.0, 2010.0, 2010.0 -> 1827
% INFO    : Updated Thermal Rating: on line 22-16 : Rate A, Rate B, Rate C , 2010.0, 2010.0, 2010.0 -> 1827
% INFO    : Updated Thermal Rating: on line 23-29 : Rate A, Rate B, Rate C , 2010.0, 2010.0, 2010.0 -> 1730
% INFO    : Updated Thermal Rating: on line 23-29 : Rate A, Rate B, Rate C , 2010.0, 2010.0, 2010.0 -> 1730
% INFO    : Updated Thermal Rating: on line 25-26 : Rate A, Rate B, Rate C , 6960.0, 6960.0, 6960.0 -> 5539
% INFO    : Updated Thermal Rating: on line 25-26 : Rate A, Rate B, Rate C , 5540.0, 5540.0, 5540.0 -> 5539
% INFO    : Updated Thermal Rating: on line 3-2 : Rate A, Rate B, Rate C , 652.0, 652.0, 652.0 -> 383
% INFO    : 
% INFO    : === Voltage Setpoint Replacement Notes ===
% INFO    : Bus 1	: V=1.0, theta=0.0 -> V=1.1, theta=27.09982
% INFO    : Bus 2	: V=1.0, theta=0.0 -> V=1.1, theta=26.83213
% INFO    : Bus 3	: V=1.0, theta=0.0 -> V=1.09038, theta=19.42768
% INFO    : Bus 4	: V=1.0, theta=0.0 -> V=1.1, theta=13.34585
% INFO    : Bus 5	: V=1.0, theta=0.0 -> V=1.1, theta=7.7787
% INFO    : Bus 6	: V=1.0, theta=0.0 -> V=1.09911, theta=6.34843
% INFO    : Bus 7	: V=1.0, theta=0.0 -> V=1.1, theta=11.86567
% INFO    : Bus 8	: V=1.0, theta=0.0 -> V=1.09659, theta=11.80746
% INFO    : Bus 9	: V=1.0, theta=0.0 -> V=1.1, theta=4.9523
% INFO    : Bus 10	: V=1.0, theta=0.0 -> V=1.09704, theta=4.35998
% INFO    : Bus 11	: V=1.0, theta=0.0 -> V=1.1, theta=3.14548
% INFO    : Bus 12	: V=1.0, theta=0.0 -> V=1.1, theta=4.97814
% INFO    : Bus 13	: V=1.0, theta=0.0 -> V=1.08864, theta=1.32651
% INFO    : Bus 14	: V=1.0, theta=0.0 -> V=1.09241, theta=2.69961
% INFO    : Bus 15	: V=1.0, theta=0.0 -> V=1.09784, theta=3.48651
% INFO    : Bus 16	: V=1.0, theta=0.0 -> V=1.1, theta=6.00053
% INFO    : Bus 17	: V=1.0, theta=0.0 -> V=1.09152, theta=0.86454
% INFO    : Bus 18	: V=1.0, theta=0.0 -> V=1.08369, theta=-0.15865
% INFO    : Bus 19	: V=1.0, theta=0.0 -> V=1.1, theta=2.76206
% INFO    : Bus 20	: V=1.0, theta=0.0 -> V=1.09899, theta=1.57575
% INFO    : Bus 21	: V=1.0, theta=0.0 -> V=1.09188, theta=0.66962
% INFO    : Bus 22	: V=1.0, theta=0.0 -> V=1.08733, theta=-0.28413
% INFO    : Bus 23	: V=1.0, theta=0.0 -> V=1.0956, theta=-0.59473
% INFO    : Bus 24	: V=1.0, theta=0.0 -> V=1.08722, theta=-1.23369
% INFO    : Bus 25	: V=1.0, theta=0.0 -> V=1.07353, theta=-2.64013
% INFO    : Bus 26	: V=1.0, theta=0.0 -> V=1.1, theta=1.76769
% INFO    : Bus 27	: V=1.0, theta=0.0 -> V=1.1, theta=0.0
% INFO    : Bus 28	: V=1.0, theta=0.0 -> V=1.09038, theta=-3.55406
% INFO    : Bus 29	: V=1.0, theta=0.0 -> V=1.0948, theta=-4.89753
% INFO    : 
% INFO    : === Generator Setpoint Replacement Notes ===
% INFO    : Gen at bus 1	: Pg=493.5, Qg=-24.62 -> Pg=668.0, Qg=-10.406
% INFO    : Gen at bus 1	: Vg=1.0 -> Vg=1.1
% INFO    : Gen at bus 1	: Pg=549.58, Qg=19.47 -> Pg=0.0, Qg=23.381
% INFO    : Gen at bus 1	: Vg=1.0 -> Vg=1.1
% INFO    : Gen at bus 1	: Pg=0.0, Qg=40.0 -> Pg=0.0, Qg=50.399
% INFO    : Gen at bus 1	: Vg=1.0 -> Vg=1.1
% INFO    : Gen at bus 1	: Pg=18.72, Qg=-0.6 -> Pg=0.0, Qg=-0.557
% INFO    : Gen at bus 1	: Vg=1.0 -> Vg=1.1
% INFO    : Gen at bus 2	: Pg=36.43, Qg=-1.67 -> Pg=0.0, Qg=-1.762
% INFO    : Gen at bus 2	: Vg=1.0 -> Vg=1.1
% INFO    : Gen at bus 2	: Pg=1524.0, Qg=317.58 -> Pg=1524.0, Qg=108.901
% INFO    : Gen at bus 2	: Vg=1.0 -> Vg=1.1
% INFO    : Gen at bus 2	: Pg=12.0, Qg=0.0 -> Pg=0.0, Qg=0.0
% INFO    : Gen at bus 2	: Vg=1.0 -> Vg=1.1
% INFO    : Gen at bus 3	: Pg=387.9, Qg=-14.9 -> Pg=250.576, Qg=35.929
% INFO    : Gen at bus 3	: Vg=1.0 -> Vg=1.09038
% INFO    : Gen at bus 3	: Pg=13.54, Qg=-3.51 -> Pg=19.0, Qg=-3.51
% INFO    : Gen at bus 3	: Vg=1.0 -> Vg=1.09038
% INFO    : Gen at bus 3	: Pg=553.0, Qg=39.31 -> Pg=553.12, Qg=68.438
% INFO    : Gen at bus 3	: Vg=1.0 -> Vg=1.09038
% INFO    : Gen at bus 3	: Pg=15.12, Qg=-0.39 -> Pg=15.12, Qg=-0.255
% INFO    : Gen at bus 3	: Vg=1.0 -> Vg=1.09038
% INFO    : Gen at bus 4	: Pg=25.2, Qg=-0.84 -> Pg=0.0, Qg=-0.685
% INFO    : Gen at bus 4	: Vg=1.0 -> Vg=1.1
% INFO    : Gen at bus 4	: Pg=2284.0, Qg=-18.77 -> Pg=2284.0, Qg=340.342
% INFO    : Gen at bus 4	: Vg=1.0 -> Vg=1.1
% INFO    : Gen at bus 4	: Pg=340.0, Qg=6.24 -> Pg=0.0, Qg=29.879
% INFO    : Gen at bus 4	: Vg=1.0 -> Vg=1.1
% INFO    : Gen at bus 4	: Pg=259.0, Qg=7.16 -> Pg=259.0, Qg=26.526
% INFO    : Gen at bus 4	: Vg=1.0 -> Vg=1.1
% INFO    : Gen at bus 5	: Pg=1074.0, Qg=-6.65 -> Pg=0.0, Qg=119.835
% INFO    : Gen at bus 5	: Vg=1.0 -> Vg=1.1
% INFO    : Gen at bus 5	: Pg=23.2, Qg=2.72 -> Pg=0.0, Qg=2.849
% INFO    : Gen at bus 5	: Vg=1.0 -> Vg=1.1
% INFO    : Gen at bus 6	: Pg=1001.52, Qg=-22.57 -> Pg=0.0, Qg=271.673
% INFO    : Gen at bus 6	: Vg=1.0 -> Vg=1.09911
% INFO    : Gen at bus 6	: Pg=33.0, Qg=-0.35 -> Pg=0.0, Qg=1.11
% INFO    : Gen at bus 6	: Vg=1.0 -> Vg=1.09911
% INFO    : Gen at bus 6	: Pg=49.4, Qg=-2.7 -> Pg=0.0, Qg=-2.194
% INFO    : Gen at bus 6	: Vg=1.0 -> Vg=1.09911
% INFO    : Gen at bus 7	: Pg=226.8, Qg=-2.63 -> Pg=0.0, Qg=-10.082
% INFO    : Gen at bus 7	: Vg=1.0 -> Vg=1.1
% INFO    : Gen at bus 7	: Pg=1216.0, Qg=106.13 -> Pg=1215.0, Qg=-34.923
% INFO    : Gen at bus 7	: Vg=1.0 -> Vg=1.1
% INFO    : Gen at bus 7	: Pg=1104.0, Qg=7.55 -> Pg=1102.0, Qg=-12.802
% INFO    : Gen at bus 7	: Vg=1.0 -> Vg=1.1
% INFO    : Gen at bus 10	: Pg=1208.0, Qg=9.76 -> Pg=1207.0, Qg=60.13
% INFO    : Gen at bus 10	: Vg=1.0 -> Vg=1.09704
% INFO    : Gen at bus 10	: Pg=1875.0, Qg=-66.23 -> Pg=0.0, Qg=30.276
% INFO    : Gen at bus 10	: Vg=1.0 -> Vg=1.09704
% INFO    : Gen at bus 10	: Pg=420.0, Qg=14.95 -> Pg=0.0, Qg=18.892
% INFO    : Gen at bus 10	: Vg=1.0 -> Vg=1.09704
% INFO    : Gen at bus 11	: Pg=130.32, Qg=-57.6 -> Pg=0.0, Qg=-57.6
% INFO    : Gen at bus 11	: Vg=1.0 -> Vg=1.1
% INFO    : Gen at bus 11	: Pg=2406.0, Qg=104.89 -> Pg=2406.0, Qg=553.698
% INFO    : Gen at bus 11	: Vg=1.0 -> Vg=1.1
% INFO    : Gen at bus 11	: Pg=1961.0, Qg=150.88 -> Pg=0.0, Qg=358.733
% INFO    : Gen at bus 11	: Vg=1.0 -> Vg=1.1
% INFO    : Gen at bus 11	: Pg=155.0, Qg=9.51 -> Pg=0.0, Qg=12.618
% INFO    : Gen at bus 11	: Vg=1.0 -> Vg=1.1
% INFO    : Gen at bus 11	: Pg=1039.0, Qg=65.62 -> Pg=1039.0, Qg=214.775
% INFO    : Gen at bus 11	: Vg=1.0 -> Vg=1.1
% INFO    : Gen at bus 12	: Pg=980.0, Qg=80.93 -> Pg=980.0, Qg=219.423
% INFO    : Gen at bus 12	: Vg=1.0 -> Vg=1.1
% INFO    : Gen at bus 12	: Pg=1885.0, Qg=53.49 -> Pg=1885.0, Qg=452.649
% INFO    : Gen at bus 12	: Vg=1.0 -> Vg=1.1
% INFO    : Gen at bus 12	: Pg=210.0, Qg=10.73 -> Pg=210.0, Qg=17.428
% INFO    : Gen at bus 12	: Vg=1.0 -> Vg=1.1
% INFO    : Gen at bus 12	: Pg=1096.0, Qg=-115.52 -> Pg=2004.0, Qg=3.439
% INFO    : Gen at bus 12	: Vg=1.0 -> Vg=1.1
% INFO    : Gen at bus 15	: Pg=7800.0, Qg=503.58 -> Pg=0.0, Qg=876.741
% INFO    : Gen at bus 15	: Vg=1.0 -> Vg=1.09784
% INFO    : Gen at bus 16	: Pg=3972.0, Qg=148.72 -> Pg=3987.0, Qg=152.039
% INFO    : Gen at bus 16	: Vg=1.0 -> Vg=1.1
% INFO    : Gen at bus 16	: Pg=7041.0, Qg=149.33 -> Pg=7040.0, Qg=169.021
% INFO    : Gen at bus 16	: Vg=1.0 -> Vg=1.1
% INFO    : Gen at bus 16	: Pg=1218.0, Qg=102.24 -> Pg=1218.0, Qg=102.95
% INFO    : Gen at bus 16	: Vg=1.0 -> Vg=1.1
% INFO    : Gen at bus 17	: Pg=2000.0, Qg=204.15 -> Pg=2021.0, Qg=814.229
% INFO    : Gen at bus 17	: Vg=1.0 -> Vg=1.09152
% INFO    : Gen at bus 18	: Pg=1960.0, Qg=175.4 -> Pg=281.678, Qg=884.97
% INFO    : Gen at bus 18	: Vg=1.0 -> Vg=1.08369
% INFO    : Gen at bus 18	: Pg=228.0, Qg=-16.78 -> Pg=0.0, Qg=40.02
% INFO    : Gen at bus 18	: Vg=1.0 -> Vg=1.08369
% INFO    : Gen at bus 19	: Pg=2845.0, Qg=-66.18 -> Pg=2845.0, Qg=769.938
% INFO    : Gen at bus 19	: Vg=1.0 -> Vg=1.1
% INFO    : Gen at bus 19	: Pg=406.8, Qg=0.0 -> Pg=0.0, Qg=17.248
% INFO    : Gen at bus 19	: Vg=1.0 -> Vg=1.1
% INFO    : Gen at bus 20	: Pg=1200.0, Qg=48.88 -> Pg=1200.0, Qg=11.314
% INFO    : Gen at bus 20	: Vg=1.0 -> Vg=1.09899
% INFO    : Gen at bus 20	: Pg=360.0, Qg=236.64 -> Pg=0.0, Qg=236.64
% INFO    : Gen at bus 20	: Vg=1.0 -> Vg=1.09899
% INFO    : Gen at bus 21	: Pg=665.0, Qg=10.04 -> Pg=665.0, Qg=326.15
% INFO    : Gen at bus 21	: Vg=1.0 -> Vg=1.09188
% INFO    : Gen at bus 22	: Pg=401.1, Qg=-21.48 -> Pg=401.0, Qg=189.72
% INFO    : Gen at bus 22	: Vg=1.0 -> Vg=1.08733
% INFO    : Gen at bus 23	: Pg=3772.0, Qg=100.7 -> Pg=3801.0, Qg=1235.982
% INFO    : Gen at bus 23	: Vg=1.0 -> Vg=1.0956
% INFO    : Gen at bus 23	: Pg=363.0, Qg=-34.59 -> Pg=363.0, Qg=-17.509
% INFO    : Gen at bus 23	: Vg=1.0 -> Vg=1.0956
% INFO    : Gen at bus 23	: Pg=470.0, Qg=53.16 -> Pg=0.0, Qg=131.326
% INFO    : Gen at bus 23	: Vg=1.0 -> Vg=1.0956
% INFO    : Gen at bus 23	: Pg=3081.01, Qg=-30.71 -> Pg=4431.0, Qg=858.099
% INFO    : Gen at bus 23	: Vg=1.0 -> Vg=1.0956
% INFO    : Gen at bus 23	: Pg=0.0, Qg=0.0 -> Pg=100.0, Qg=0.0
% INFO    : Gen at bus 23	: Vg=1.0 -> Vg=1.0956
% INFO    : Gen at bus 25	: Pg=2123.0, Qg=0.98 -> Pg=2123.0, Qg=949.38
% INFO    : Gen at bus 25	: Vg=1.0 -> Vg=1.07353
% INFO    : Gen at bus 25	: Pg=0.0, Qg=0.0 -> Pg=0.0, Qg=0.0
% INFO    : Gen at bus 25	: Vg=1.0 -> Vg=1.07353
% INFO    : Gen at bus 26	: Pg=1940.0, Qg=225.05 -> Pg=1966.0, Qg=486.271
% INFO    : Gen at bus 26	: Vg=1.0 -> Vg=1.1
% INFO    : Gen at bus 26	: Pg=1104.0, Qg=44.74 -> Pg=0.0, Qg=123.27
% INFO    : Gen at bus 26	: Vg=1.0 -> Vg=1.1
% INFO    : Gen at bus 26	: Pg=2465.0, Qg=69.94 -> Pg=3165.0, Qg=748.822
% INFO    : Gen at bus 26	: Vg=1.0 -> Vg=1.1
% INFO    : Gen at bus 26	: Pg=0.0, Qg=0.0 -> Pg=1355.0, Qg=0.0
% INFO    : Gen at bus 26	: Vg=1.0 -> Vg=1.1
% INFO    : Gen at bus 27	: Pg=1082.0, Qg=62.12 -> Pg=1081.0, Qg=374.693
% INFO    : Gen at bus 27	: Vg=1.0 -> Vg=1.1
% INFO    : Gen at bus 27	: Pg=216.0, Qg=35.5 -> Pg=0.0, Qg=36.973
% INFO    : Gen at bus 27	: Vg=1.0 -> Vg=1.1
% INFO    : Gen at bus 28	: Pg=1320.0, Qg=39.06 -> Pg=0.0, Qg=657.819
% INFO    : Gen at bus 28	: Vg=1.0 -> Vg=1.09038
% INFO    : Gen at bus 28	: Pg=208.0, Qg=-5.21 -> Pg=0.0, Qg=60.789
% INFO    : Gen at bus 28	: Vg=1.0 -> Vg=1.09038
% INFO    : Gen at bus 29	: Pg=1261.0, Qg=-12.56 -> Pg=0.0, Qg=290.272
% INFO    : Gen at bus 29	: Vg=1.0 -> Vg=1.0948
% INFO    : Gen at bus 29	: Pg=905.0, Qg=-4.34 -> Pg=905.0, Qg=244.243
% INFO    : Gen at bus 29	: Vg=1.0 -> Vg=1.0948
% INFO    : Gen at bus 29	: Pg=0.0, Qg=0.0 -> Pg=0.0, Qg=0.0
% INFO    : Gen at bus 29	: Vg=1.0 -> Vg=1.0948
% INFO    : 
% INFO    : === Writing Matpower Case File Notes ===
